Circuit: * U:\gas sensor\Draft1.asc

Direct Newton iteration for .op point succeeded.

Date: Fri Dec  6 16:40:35 2024
Total elapsed time: 0.219 seconds.

tnom = 27
temp = 27
method = modified trap
totiter = 8326
traniter = 8304
tranpoints = 4153
accept = 2681
rejected = 1472
matrix size = 16
fillins = 5
solver = Normal
Avg thread counts: 1.2/1.3/1.3/1.2
Matrix Compiler1: 728 bytes object code size  0.3/0.3/[0.1]
Matrix Compiler2: 1.30 KB object code size  0.2/0.3/[0.2]

